<?xml version="1.0" encoding="UTF-8"?>
<additional>
    <location  netOffset="-224272.48,-3889867.94" projParameter="+proj=utm +zone=16 +ellps=WGS84 +datum=WGS84 +units=m +no_defs" convBoundary="0.0,0.0,3942.08,5572.25" origBoundary="-90.026039,35.114782,-89.983068,35.164898"/>
</additional>
