<?xml version="1.0" encoding="UTF-8"?>
<edges>
    <edge  id="-100281066" type="highway.tertiary" numLanes="1" speed="22.22" priority="6" shape="1881.17,1961.28,0.0 1904.37,2363.81,0.0" spreadType="right" name="South Belvedere Boulevard" endOffset="0.0" from="203842637" to="203733673">
        <lane  index="0" width="3.0" speed="22.22" endOffset="0.0"/>
    </edge>
    <edge  id="-100281069#0" type="highway.primary" numLanes="3" speed="17.88" priority="9" shape="2500.92,2267.62,0.0 2375.62,2287.28,0.0" spreadType="right" name="Union Avenue" endOffset="0.0" from="203733697" to="203733693">
        <lane  index="0" width="3.0" speed="17.88" endOffset="0.0"/>
        <lane  index="0" width="3.0" speed="17.88" endOffset="0.0"/>
        <lane  index="0" width="3.0" speed="17.88" endOffset="0.0"/>
    </edge>
    <edge  id="-100281069#1" type="highway.primary" numLanes="3" speed="17.88" priority="9" shape="2629.57,2247.09,0.0 2500.92,2267.62,0.0" spreadType="right" name="Union Avenue" endOffset="0.0" from="203733707" to="203733697">
        <lane  index="0" width="3.0" speed="17.88" endOffset="0.0"/>
        <lane  index="0" width="3.0" speed="17.88" endOffset="0.0"/>
        <lane  index="0" width="3.0" speed="17.88" endOffset="0.0"/>
    </edge>
    <edge  id="-100281069#2" type="highway.primary" numLanes="3" speed="17.88" priority="9" shape="2759.4,2226.41,0.0 2629.57,2247.09,0.0" spreadType="right" name="Union Avenue" endOffset="0.0" from="203679085" to="203733707">
        <lane  index="0" width="3.0" speed="17.88" endOffset="0.0"/>
        <lane  index="0" width="3.0" speed="17.88" endOffset="0.0"/>
        <lane  index="0" width="3.0" speed="17.88" endOffset="0.0"/>
    </edge>
    <edge  id="-100281069#3" type="highway.primary" numLanes="3" speed="17.88" priority="9" shape="2801.86,2218.69,0.0 2759.4,2226.41,0.0" spreadType="right" name="Union Avenue" endOffset="0.0" from="203679118" to="203679085">
        <lane  index="0" width="3.0" speed="17.88" endOffset="0.0"/>
        <lane  index="0" width="3.0" speed="17.88" endOffset="0.0"/>
        <lane  index="0" width="3.0" speed="17.88" endOffset="0.0"/>
    </edge>
    <edge  id="-100281069#4" type="highway.primary" numLanes="3" speed="17.88" priority="9" shape="2888.09,2207.21,0.0 2801.86,2218.69,0.0" spreadType="right" name="Union Avenue" endOffset="0.0" from="203733713" to="203679118">
        <lane  index="0" width="3.0" speed="17.88" endOffset="0.0"/>
        <lane  index="0" width="3.0" speed="17.88" endOffset="0.0"/>
        <lane  index="0" width="3.0" speed="17.88" endOffset="0.0"/>
    </edge>
    <edge  id="-100281069#5" type="highway.primary" numLanes="3" speed="17.88" priority="9" shape="2996.85,2189.83,0.0 2888.09,2207.21,0.0" spreadType="right" name="Union Avenue" endOffset="0.0" from="203733715" to="203733713">
        <lane  index="0" width="3.0" speed="17.88" endOffset="0.0"/>
        <lane  index="0" width="3.0" speed="17.88" endOffset="0.0"/>
        <lane  index="0" width="3.0" speed="17.88" endOffset="0.0"/>
    </edge>
    <edge  id="-100281069#6" type="highway.primary" numLanes="3" speed="17.88" priority="9" shape="3082.57,2176.37,0.0 3030.74,2185.03,0.0 2996.85,2189.83,0.0" spreadType="right" name="Union Avenue" endOffset="0.0" from="203733728" to="203733715">
        <lane  index="0" width="3.0" speed="17.88" endOffset="0.0"/>
        <lane  index="0" width="3.0" speed="17.88" endOffset="0.0"/>
        <lane  index="0" width="3.0" speed="17.88" endOffset="0.0"/>
    </edge>
    <edge  id="-100281069#7" type="highway.primary" numLanes="3" speed="17.88" priority="9" shape="3256.61,2148.37,0.0 3082.57,2176.37,0.0" spreadType="right" name="Union Avenue" endOffset="0.0" from="203733732" to="203733728">
        <lane  index="0" width="3.0" speed="17.88" endOffset="0.0"/>
        <lane  index="0" width="3.0" speed="17.88" endOffset="0.0"/>
        <lane  index="0" width="3.0" speed="17.88" endOffset="0.0"/>
    </edge>
    <edge  id="-107553117" type="highway.service" numLanes="1" speed="13.8" priority="2" shape="2816.27,3211.46,0.0 2830.42,3214.09,0.0 2844.83,3233.74,0.0 2858.73,3256.7,0.0 2854.2,3262.02,0.0 2845.3,3276.25,0.0 2842.7,3292.75,0.0 2844.96,3307.05,0.0 2849.66,3320.79,0.0 2865.65,3348.08,0.0 2868.78,3359.33,0.0" spreadType="right" name="Museum Dr" endOffset="0.0" from="1235932274" to="1235932516">
        <lane  index="0" width="3.0" speed="13.8" endOffset="0.0" allow="delivery bicycle"/>
    </edge>
    <edge  id="-107553118#0" type="highway.residential" numLanes="1" speed="13.89" priority="4" shape="3156.98,3152.93,0.0 3100.36,3164.18,0.0 3009.42,3182.51,0.0 2939.83,3179.24,0.0 2856.43,3155.93,0.0 2782.81,3123.25,0.0" spreadType="right" name="Golf Dr" endOffset="0.0" from="1235932147" to="1235932243">
        <lane  index="0" width="3.0" speed="13.89" endOffset="0.0"/>
    </edge>
    <edge  id="-107553118#1" type="highway.residential" numLanes="1" speed="13.89" priority="4" shape="3323.54,3197.9,0.0 3249.48,3163.94,0.0 3156.98,3152.93,0.0" spreadType="right" name="Golf Dr" endOffset="0.0" from="4015701153" to="1235932147">
        <lane  index="0" width="3.0" speed="13.89" endOffset="0.0"/>
    </edge>
    <edge  id="-107553118#2" type="highway.residential" numLanes="1" speed="13.89" priority="4" shape="3348.05,3198.33,0.0 3323.54,3197.9,0.0" spreadType="right" name="Golf Dr" endOffset="0.0" from="4015700803" to="4015701153">
        <lane  index="0" width="3.0" speed="13.89" endOffset="0.0"/>
    </edge>
    <edge  id="-107553118#3" type="highway.residential" numLanes="1" speed="13.89" priority="4" shape="3533.63,3131.34,0.0 3469.39,3166.72,0.0 3395.02,3199.16,0.0 3348.05,3198.33,0.0" spreadType="right" name="Golf Dr" endOffset="0.0" from="1235932209" to="4015700803">
        <lane  index="0" width="3.0" speed="13.89" endOffset="0.0"/>
    </edge>
    <edge  id="-107553119#0" type="highway.residential" numLanes="1" speed="13.89" priority="4" shape="2825.16,3394.61,0.0 2816.04,3427.34,0.0 2809.53,3450.6,0.0 2808.56,3483.27,0.0 2814.65,3514.99,0.0 2821.75,3553.03,0.0 2831.17,3592.18,0.0 2841.97,3619.18,0.0 2847.55,3644.47,0.0 2847.97,3649.91,0.0 2852.67,3729.39,0.0 2854.51,3740.12,0.0 2861.77,3812.41,0.0 2869.95,3828.49,0.0 2870.46,3853.88,0.0 2861.43,3882.31,0.0 2855.52,3900.27,0.0 2841.87,3919.45,0.0" spreadType="right" name="Morrie Moss Lane" endOffset="0.0" from="1235932399" to="203892393">
        <lane  index="0" width="3.0" speed="13.89" endOffset="0.0"/>
    </edge>
    <edge  id="-107553119#1" type="highway.residential" numLanes="1" speed="13.89" priority="4" shape="2816.27,3211.46,0.0 2819.72,3317.8,0.0 2825.16,3394.61,0.0" spreadType="right" name="Morrie Moss Lane" endOffset="0.0" from="1235932274" to="1235932399">
        <lane  index="0" width="3.0" speed="13.89" endOffset="0.0"/>
    </edge>
    <edge  id="-107553119#2" type="highway.residential" numLanes="1" speed="13.89" priority="4" shape="2804.89,3170.6,0.0 2816.27,3211.46,0.0" spreadType="right" name="Morrie Moss Lane" endOffset="0.0" from="2355403696" to="1235932274">
        <lane  index="0" width="3.0" speed="13.89" endOffset="0.0"/>
    </edge>
    <edge  id="-107553119#3" type="highway.residential" numLanes="1" speed="13.89" priority="4" shape="2782.81,3123.25,0.0 2798.03,3154.77,0.0 2804.89,3170.6,0.0" spreadType="right" name="Morrie Moss Lane" endOffset="0.0" from="1235932243" to="2355403696">
        <lane  index="0" width="3.0" speed="13.89" endOffset="0.0"/>
    </edge>
    <edge  id="-107553119#4" type="highway.residential" numLanes="1" speed="13.89" priority="4" shape="2762.33,3087.07,0.0 2782.81,3123.25,0.0" spreadType="right" name="Morrie Moss Lane" endOffset="0.0" from="203838713" to="1235932243">
        <lane  index="0" width="3.0" speed="13.89" endOffset="0.0"/>
    </edge>
    <edge  id="-107553122#0" type="highway.residential" numLanes="1" speed="13.89" priority="4" shape="3156.98,3152.93,0.0 3169.98,3009.23,0.0" spreadType="right" name="Veterans Plaza Drive" endOffset="0.0" from="1235932147" to="1235932304">
        <lane  index="0" width="3.0" speed="13.89" endOffset="0.0"/>
    </edge>
    <edge  id="-107553122#1" type="highway.residential" numLanes="1" speed="13.89" priority="4" shape="3122.72,3279.82,0.0 3156.47,3158.6,0.0 3156.98,3152.93,0.0" spreadType="right" name="Veterans Plaza Drive" endOffset="0.0" from="1235932369" to="1235932147">
        <lane  index="0" width="3.0" speed="13.89" endOffset="0.0"/>
    </edge>
    <edge  id="-107553122#2" type="highway.residential" numLanes="1" speed="13.89" priority="4" shape="3079.49,3411.85,0.0 3100.39,3360.01,0.0 3122.72,3279.82,0.0" spreadType="right" name="Veterans Plaza Drive" endOffset="0.0" from="1235932407" to="1235932369">
        <lane  index="0" width="3.0" speed="13.89" endOffset="0.0"/>
    </edge>
    <edge  id="-107553122#3" type="highway.residential" numLanes="1" speed="13.89" priority="4" shape="2825.16,3394.61,0.0 2871.31,3455.07,0.0 2905.87,3485.83,0.0 2960.17,3550.37,0.0 2965.88,3557.4,0.0 2971.31,3556.21,0.0 3036.24,3487.55,0.0 3079.49,3411.85,0.0" spreadType="right" name="Veterans Plaza Drive" endOffset="0.0" from="1235932399" to="1235932407">
        <lane  index="0" width="3.0" speed="13.89" endOffset="0.0"/>
    </edge>
    <edge  id="-107553130#0" type="highway.service" numLanes="1" speed="13.8" priority="2" shape="2868.78,3359.33,0.0 2849.49,3372.18,0.0 2836.6,3383.79,0.0 2825.16,3394.61,0.0" spreadType="right" name="Clocktower Ln" endOffset="0.0" from="1235932516" to="1235932399">
        <lane  index="0" width="3.0" speed="13.8" endOffset="0.0" allow="delivery bicycle"/>
    </edge>
    <edge  id="-107553130#1" type="highway.service" numLanes="1" speed="13.8" priority="2" shape="3015.49,3351.85,0.0 2967.07,3352.82,0.0 2923.57,3354.13,0.0 2868.78,3359.33,0.0" spreadType="right" name="Clocktower Ln" endOffset="0.0" from="1235932193" to="1235932516">
        <lane  index="0" width="3.0" speed="13.8" endOffset="0.0" allow="delivery bicycle"/>
    </edge>
    <edge  id="-107553130#2" type="highway.service" numLanes="1" speed="13.8" priority="2" shape="3079.49,3411.85,0.0 3062.1,3388.44,0.0 3043.41,3369.03,0.0 3015.49,3351.85,0.0" spreadType="right" name="Clocktower Ln" endOffset="0.0" from="1235932407" to="1235932193">
        <lane  index="0" width="3.0" speed="13.8" endOffset="0.0" allow="delivery bicycle"/>
    </edge>
    <edge  id="-107553134" type="highway.residential" numLanes="1" speed="13.89" priority="4" shape="3122.72,3279.82,0.0 3088.08,3308.74,0.0 3056.5,3332.59,0.0 3015.49,3351.85,0.0" spreadType="right" name="Museum Drive" endOffset="0.0" from="1235932369" to="1235932193">
        <lane  index="0" width="3.0" speed="13.89" endOffset="0.0"/>
    </edge>
    <edge  id="-130097888#1" type="highway.tertiary" numLanes="1" speed="22.22" priority="6" shape="3288.44,2418.26,0.0 3504.63,2384.56,0.0 3524.8,2381.84,0.0 3705.13,2352.78,0.0 3865.33,2328.53,0.0 3917.89,2320.63,0.0" spreadType="right" name="Madison Avenue" endOffset="0.0" from="203777568" to="628986773">
        <lane  index="0" width="3.0" speed="22.22" endOffset="0.0"/>
    </edge>
    <edge  id="-130097888#10" type="highway.tertiary" numLanes="1" speed="22.22" priority="6" shape="2293.22,2588.94,0.0 2423.39,2564.58,0.0" spreadType="right" name="Madison Avenue" endOffset="0.0" from="203690438" to="203744873">
        <lane  index="0" width="3.0" speed="22.22" endOffset="0.0"/>
    </edge>
    <edge  id="-130097888#11" type="highway.tertiary" numLanes="1" speed="22.22" priority="6" shape="2177.45,2606.98,0.0 2293.22,2588.94,0.0" spreadType="right" name="Madison Avenue" endOffset="0.0" from="203790187" to="203690438">
        <lane  index="0" width="3.0" speed="22.22" endOffset="0.0"/>
    </edge>
    <edge  id="-130097888#12" type="highway.tertiary" numLanes="1" speed="22.22" priority="6" shape="2073.01,2622.57,0.0 2177.45,2606.98,0.0" spreadType="right" name="Madison Avenue" endOffset="0.0" from="203755834" to="203790187">
        <lane  index="0" width="3.0" speed="22.22" endOffset="0.0"/>
    </edge>
    <edge  id="-130097888#13" type="highway.tertiary" numLanes="1" speed="22.22" priority="6" shape="1965.18,2619.69,0.0 1972.91,2621.49,0.0 2005.1,2627.07,0.0 2035.04,2627.72,0.0 2054.34,2626.58,0.0 2073.01,2622.57,0.0" spreadType="right" name="Madison Avenue" endOffset="0.0" from="4688062096" to="203755834">
        <lane  index="0" width="3.0" speed="22.22" endOffset="0.0"/>
    </edge>
    <edge  id="-130097888#14" type="highway.tertiary" numLanes="1" speed="22.22" priority="6" shape="1933.82,2612.4,0.0 1965.18,2619.69,0.0" spreadType="right" name="Madison Avenue" endOffset="0.0" from="203792422" to="4688062096">
        <lane  index="0" width="3.0" speed="22.22" endOffset="0.0"/>
    </edge>
    <edge  id="-130097888#15" type="highway.tertiary" numLanes="1" speed="22.22" priority="6" shape="1813.5,2611.2,0.0 1859.38,2604.71,0.0 1882.71,2604.0,0.0 1904.86,2606.55,0.0 1933.82,2612.4,0.0" spreadType="right" name="Madison Avenue" endOffset="0.0" from="203654629" to="203792422">
        <lane  index="0" width="3.0" speed="22.22" endOffset="0.0"/>
    </edge>
    <edge  id="-130097888#16" type="highway.tertiary" numLanes="1" speed="22.22" priority="6" shape="1676.46,2631.34,0.0 1813.5,2611.2,0.0" spreadType="right" name="Madison Avenue" endOffset="0.0" from="203702563" to="203654629">
        <lane  index="0" width="3.0" speed="22.22" endOffset="0.0"/>
    </edge>
    <edge  id="-130097888#17" type="highway.tertiary" numLanes="1" speed="22.22" priority="6" shape="1594.65,2644.14,0.0 1676.46,2631.34,0.0" spreadType="right" name="Madison Avenue" endOffset="0.0" from="203788574" to="203702563">
        <lane  index="0" width="3.0" speed="22.22" endOffset="0.0"/>
    </edge>
    <edge  id="-130097888#18" type="highway.tertiary" numLanes="1" speed="22.22" priority="6" shape="1301.39,2687.33,0.0 1594.65,2644.14,0.0" spreadType="right" name="Madison Avenue" endOffset="0.0" from="203929015" to="203788574">
        <lane  index="0" width="3.0" speed="22.22" endOffset="0.0"/>
    </edge>
    <edge  id="-130097888#19" type="highway.tertiary" numLanes="1" speed="22.22" priority="6" shape="1196.29,2701.95,0.0 1301.39,2687.33,0.0" spreadType="right" name="Madison Avenue" endOffset="0.0" from="203851319" to="203929015">
        <lane  index="0" width="3.0" speed="22.22" endOffset="0.0"/>
    </edge>
    <edge  id="-130097888#2" type="highway.tertiary" numLanes="1" speed="22.22" priority="6" shape="3237.73,2427.53,0.0 3288.44,2418.26,0.0" spreadType="right" name="Madison Avenue" endOffset="0.0" from="3080882284" to="203777568">
        <lane  index="0" width="3.0" speed="22.22" endOffset="0.0"/>
    </edge>
    <edge  id="-130097888#20" type="highway.tertiary" numLanes="1" speed="22.22" priority="6" shape="1091.16,2718.8,0.0 1196.29,2701.95,0.0" spreadType="right" name="Madison Avenue" endOffset="0.0" from="203803968" to="203851319">
        <lane  index="0" width="3.0" speed="22.22" endOffset="0.0"/>
    </edge>
    <edge  id="-130097888#21" type="highway.tertiary" numLanes="1" speed="22.22" priority="6" shape="1052.35,2724.81,0.0 1091.16,2718.8,0.0" spreadType="right" name="Madison Avenue" endOffset="0.0" from="1433956536" to="203803968">
        <lane  index="0" width="3.0" speed="22.22" endOffset="0.0"/>
    </edge>
    <edge  id="-130097888#3" type="highway.tertiary" numLanes="1" speed="22.22" priority="6" shape="3124.77,2448.17,0.0 3237.73,2427.53,0.0" spreadType="right" name="Madison Avenue" endOffset="0.0" from="203878071" to="3080882284">
        <lane  index="0" width="3.0" speed="22.22" endOffset="0.0"/>
    </edge>
    <edge  id="-130097888#4" type="highway.tertiary" numLanes="1" speed="22.22" priority="6" shape="3041.01,2462.8,0.0 3094.74,2453.52,0.0 3124.77,2448.17,0.0" spreadType="right" name="Madison Avenue" endOffset="0.0" from="203917596" to="203878071">
        <lane  index="0" width="3.0" speed="22.22" endOffset="0.0"/>
    </edge>
    <edge  id="-130097888#5" type="highway.tertiary" numLanes="1" speed="22.22" priority="6" shape="2935.51,2479.41,0.0 3041.01,2462.8,0.0" spreadType="right" name="Madison Avenue" endOffset="0.0" from="203776534" to="203917596">
        <lane  index="0" width="3.0" speed="22.22" endOffset="0.0"/>
    </edge>
    <edge  id="-130097888#6" type="highway.tertiary" numLanes="1" speed="22.22" priority="6" shape="2805.62,2501.2,0.0 2935.51,2479.41,0.0" spreadType="right" name="Madison Avenue" endOffset="0.0" from="203679083" to="203776534">
        <lane  index="0" width="3.0" speed="22.22" endOffset="0.0"/>
    </edge>
    <edge  id="-130097888#7" type="highway.tertiary" numLanes="1" speed="22.22" priority="6" shape="2671.47,2523.67,0.0 2805.62,2501.2,0.0" spreadType="right" name="Madison Avenue" endOffset="0.0" from="203874947" to="203679083">
        <lane  index="0" width="3.0" speed="22.22" endOffset="0.0"/>
    </edge>
    <edge  id="-130097888#8" type="highway.tertiary" numLanes="1" speed="22.22" priority="6" shape="2544.16,2542.95,0.0 2671.47,2523.67,0.0" spreadType="right" name="Madison Avenue" endOffset="0.0" from="203894934" to="203874947">
        <lane  index="0" width="3.0" speed="22.22" endOffset="0.0"/>
    </edge>
    <edge  id="-130097888#9" type="highway.tertiary" numLanes="1" speed="22.22" priority="6" shape="2423.39,2564.58,0.0 2544.16,2542.95,0.0" spreadType="right" name="Madison Avenue" endOffset="0.0" from="203744873" to="203894934">
        <lane  index="0" width="3.0" speed="22.22" endOffset="0.0"/>
    </edge>
    <edge  id="-165538129#0" type="highway.tertiary" numLanes="1" speed="22.22" priority="6" shape="2127.95,3393.61,0.0 2108.37,3265.07,0.0" spreadType="right" name="North Evergreen Street" endOffset="0.0" from="203848829" to="203792450">
        <lane  index="0" width="3.0" speed="22.22" endOffset="0.0"/>
    </edge>
    <edge  id="-165538129#1" type="highway.tertiary" numLanes="1" speed="22.22" priority="6" shape="2183.88,3762.39,0.0 2174.59,3701.47,0.0 2165.33,3640.68,0.0 2147.08,3516.52,0.0 2127.95,3393.61,0.0" spreadType="right" name="North Evergreen Street" endOffset="0.0" from="203662190" to="203848829">
        <lane  index="0" width="3.0" speed="22.22" endOffset="0.0"/>
    </edge>
    <edge  id="-165538136#0" type="highway.secondary" numLanes="2" speed="27.78" priority="7" shape="1992.63,1954.36,0.0 1881.17,1961.28,0.0" spreadType="right" name="Peabody Avenue" endOffset="0.0" from="203763652" to="203842637">
        <lane  index="0" width="3.0" speed="27.78" endOffset="0.0"/>
        <lane  index="0" width="3.0" speed="27.78" endOffset="0.0"/>
    </edge>
    <edge  id="-165538136#1" type="highway.secondary" numLanes="2" speed="27.78" priority="7" shape="2013.81,1951.94,0.0 1992.63,1954.36,0.0" spreadType="right" name="Peabody Avenue" endOffset="0.0" from="203763658" to="203763652">
        <lane  index="0" width="3.0" speed="27.78" endOffset="0.0"/>
        <lane  index="0" width="3.0" speed="27.78" endOffset="0.0"/>
    </edge>
    <edge  id="-165538136#10" type="highway.secondary" numLanes="2" speed="27.78" priority="7" shape="3239.21,1876.04,0.0 3060.9,1889.62,0.0" spreadType="right" name="Peabody Avenue" endOffset="0.0" from="203847015" to="203922855">
        <lane  index="0" width="3.0" speed="27.78" endOffset="0.0"/>
        <lane  index="0" width="3.0" speed="27.78" endOffset="0.0"/>
    </edge>
    <edge  id="-165538136#2" type="highway.secondary" numLanes="2" speed="27.78" priority="7" shape="2319.11,1935.18,0.0 2013.81,1951.94,0.0" spreadType="right" name="Peabody Avenue" endOffset="0.0" from="203925676" to="203763658">
        <lane  index="0" width="3.0" speed="27.78" endOffset="0.0"/>
        <lane  index="0" width="3.0" speed="27.78" endOffset="0.0"/>
    </edge>
    <edge  id="-165538136#3" type="highway.secondary" numLanes="2" speed="27.78" priority="7" shape="2455.89,1932.31,0.0 2359.39,1930.74,0.0 2319.11,1935.18,0.0" spreadType="right" name="Peabody Avenue" endOffset="0.0" from="203928066" to="203925676">
        <lane  index="0" width="3.0" speed="27.78" endOffset="0.0"/>
        <lane  index="0" width="3.0" speed="27.78" endOffset="0.0"/>
    </edge>
    <edge  id="-165538136#4" type="highway.secondary" numLanes="2" speed="27.78" priority="7" shape="2476.53,1930.65,0.0 2455.89,1932.31,0.0" spreadType="right" name="Peabody Avenue" endOffset="0.0" from="203894936" to="203928066">
        <lane  index="0" width="3.0" speed="27.78" endOffset="0.0"/>
        <lane  index="0" width="3.0" speed="27.78" endOffset="0.0"/>
    </edge>
    <edge  id="-165538136#5" type="highway.secondary" numLanes="2" speed="27.78" priority="7" shape="2509.05,1928.06,0.0 2507.56,1928.16,0.0 2476.53,1930.65,0.0" spreadType="right" name="Peabody Avenue" endOffset="0.0" from="2868791509" to="203894936">
        <lane  index="0" width="3.0" speed="27.78" endOffset="0.0"/>
        <lane  index="0" width="3.0" speed="27.78" endOffset="0.0"/>
    </edge>
    <edge  id="-165538136#6" type="highway.secondary" numLanes="2" speed="27.78" priority="7" shape="2570.29,1923.94,0.0 2509.05,1928.06,0.0" spreadType="right" name="Peabody Avenue" endOffset="0.0" from="203895008" to="2868791509">
        <lane  index="0" width="3.0" speed="27.78" endOffset="0.0"/>
        <lane  index="0" width="3.0" speed="27.78" endOffset="0.0"/>
    </edge>
    <edge  id="-165538136#7" type="highway.secondary" numLanes="2" speed="27.78" priority="7" shape="2782.13,1908.89,0.0 2570.29,1923.94,0.0" spreadType="right" name="Peabody Avenue" endOffset="0.0" from="203679129" to="203895008">
        <lane  index="0" width="3.0" speed="27.78" endOffset="0.0"/>
        <lane  index="0" width="3.0" speed="27.78" endOffset="0.0"/>
    </edge>
    <edge  id="-165538136#8" type="highway.secondary" numLanes="2" speed="27.78" priority="7" shape="2930.66,1897.09,0.0 2852.39,1903.23,0.0 2782.13,1908.89,0.0" spreadType="right" name="Peabody Avenue" endOffset="0.0" from="203917606" to="203679129">
        <lane  index="0" width="3.0" speed="27.78" endOffset="0.0"/>
        <lane  index="0" width="3.0" speed="27.78" endOffset="0.0"/>
    </edge>
    <edge  id="-165538136#9" type="highway.secondary" numLanes="2" speed="27.78" priority="7" shape="3060.9,1889.62,0.0 2930.66,1897.09,0.0" spreadType="right" name="Peabody Avenue" endOffset="0.0" from="203922855" to="203917606">
        <lane  index="0" width="3.0" speed="27.78" endOffset="0.0"/>
        <lane  index="0" width="3.0" speed="27.78" endOffset="0.0"/>
    </edge>
    <edge  id="-165538138" type="highway.tertiary" numLanes="1" speed="22.22" priority="6" shape="1874.25,1318.5,0.0 1876.42,1363.96,0.0 1881.33,1486.64,0.0 1876.79,1523.42,0.0 1859.59,1660.76,0.0 1861.5,1721.11,0.0 1881.17,1961.28,0.0" spreadType="right" name="South Belvedere Boulevard" endOffset="0.0" from="203842649" to="203842637">
        <lane  index="0" width="3.0" speed="22.22" endOffset="0.0"/>
    </edge>
    <edge  id="-19608619" type="highway.residential" numLanes="1" speed="13.89" priority="4" shape="2565.14,2909.34,0.0 2601.48,2904.25,0.0" spreadType="right" endOffset="0.0" from="203629006" to="203629005">
        <lane  index="0" width="3.0" speed="13.89" endOffset="0.0"/>
    </edge>
    <edge  id="-19610553" type="highway.residential" numLanes="1" speed="13.89" priority="4" shape="3506.63,2244.58,0.0 3268.89,2280.93,0.0" spreadType="right" name="Monroe Avenue" endOffset="0.0" from="203641488" to="203641485">
        <lane  index="0" width="3.0" speed="13.89" endOffset="0.0"/>
    </edge>
    <edge  id="-19610575#0" type="highway.residential" numLanes="1" speed="13.89" priority="4" shape="885.56,2629.08,0.0 820.98,2638.48,0.0 717.65,2654.16,0.0" spreadType="right" name="Monroe Avenue" endOffset="0.0" from="203641625" to="203641622">
        <lane  index="0" width="3.0" speed="13.89" endOffset="0.0"/>
    </edge>
    <edge  id="-19610575#1" type="highway.residential" numLanes="1" speed="13.89" priority="4" shape="1075.92,2600.99,0.0 885.56,2629.08,0.0" spreadType="right" name="Monroe Avenue" endOffset="0.0" from="203641628" to="203641625">
        <lane  index="0" width="3.0" speed="13.89" endOffset="0.0"/>
    </edge>
    <edge  id="-19610575#2" type="highway.residential" numLanes="1" speed="13.89" priority="4" shape="1180.39,2586.61,0.0 1075.92,2600.99,0.0" spreadType="right" name="Monroe Avenue" endOffset="0.0" from="203641633" to="203641628">
        <lane  index="0" width="3.0" speed="13.89" endOffset="0.0"/>
    </edge>
    <edge  id="-19610575#3" type="highway.residential" numLanes="1" speed="13.89" priority="4" shape="1283.84,2571.48,0.0 1180.39,2586.61,0.0" spreadType="right" name="Monroe Avenue" endOffset="0.0" from="203641637" to="203641633">
        <lane  index="0" width="3.0" speed="13.89" endOffset="0.0"/>
    </edge>
    <edge  id="-19610575#4" type="highway.residential" numLanes="1" speed="13.89" priority="4" shape="1577.33,2527.06,0.0 1283.84,2571.48,0.0" spreadType="right" name="Monroe Avenue" endOffset="0.0" from="203641641" to="203641637">
        <lane  index="0" width="3.0" speed="13.89" endOffset="0.0"/>
    </edge>
    <edge  id="-19610575#5" type="highway.residential" numLanes="1" speed="13.89" priority="4" shape="1657.36,2515.64,0.0 1577.33,2527.06,0.0" spreadType="right" name="Monroe Avenue" endOffset="0.0" from="203641643" to="203641641">
        <lane  index="0" width="3.0" speed="13.89" endOffset="0.0"/>
    </edge>
    <edge  id="-19610575#6" type="highway.residential" numLanes="1" speed="13.89" priority="4" shape="1916.1,2480.5,0.0 1657.36,2515.64,0.0" spreadType="right" name="Monroe Avenue" endOffset="0.0" from="203641645" to="203641643">
        <lane  index="0" width="3.0" speed="13.89" endOffset="0.0"/>
    </edge>
    <edge  id="-19610575#7" type="highway.residential" numLanes="1" speed="13.89" priority="4" shape="2053.65,2458.47,0.0 1916.1,2480.5,0.0" spreadType="right" name="Monroe Avenue" endOffset="0.0" from="203641650" to="203641645">
        <lane  index="0" width="3.0" speed="13.89" endOffset="0.0"/>
    </edge>
    <edge  id="-19610581#0" type="highway.residential" numLanes="1" speed="13.89" priority="4" shape="3099.94,2283.9,0.0 3049.39,2292.53,0.0 3014.25,2298.02,0.0" spreadType="right" name="Monroe Avenue" endOffset="0.0" from="203641705" to="203641697">
        <lane  index="0" width="3.0" speed="13.89" endOffset="0.0"/>
    </edge>
    <edge  id="-19610581#1" type="highway.residential" numLanes="1" speed="13.89" priority="4" shape="3264.6,2256.29,0.0 3099.94,2283.9,0.0" spreadType="right" name="Monroe Avenue" endOffset="0.0" from="203641708" to="203641705">
        <lane  index="0" width="3.0" speed="13.89" endOffset="0.0"/>
    </edge>
    <edge  id="-19611356" type="highway.residential" numLanes="1" speed="13.89" priority="4" shape="2232.7,3001.66,0.0 2200.55,3006.62,0.0 2209.2,3075.55,0.0 2241.59,3072.79,0.0" spreadType="right" name="North Auburndale Place" endOffset="0.0" from="203646980" to="203646976">
        <lane  index="0" width="3.0" speed="13.89" endOffset="0.0"/>
    </edge>
    <edge  id="-19612421" type="highway.residential" numLanes="1" speed="13.89" priority="4" shape="1955.56,3795.27,0.0 1951.4,3769.08,0.0 1918.24,3535.32,0.0 1868.77,3181.0,0.0" spreadType="right" name="Angelus Street" endOffset="0.0" from="203654612" to="203651840">
        <lane  index="0" width="3.0" speed="13.89" endOffset="0.0"/>
    </edge>
    <edge  id="-19612427" type="highway.residential" numLanes="1" speed="13.89" priority="4" shape="1899.46,3176.52,0.0 1813.5,2611.2,0.0" spreadType="right" name="Angelus Street" endOffset="0.0" from="203651842" to="203654629">
        <lane  index="0" width="3.0" speed="13.89" endOffset="0.0"/>
    </edge>
    <edge  id="-19613206#0" type="highway.residential" numLanes="1" speed="13.89" priority="4" shape="2355.39,3364.42,0.0 2320.33,3124.61,0.0" spreadType="right" name="Hawthorne Street" endOffset="0.0" from="203659675" to="203651863">
        <lane  index="0" width="3.0" speed="13.89" endOffset="0.0"/>
    </edge>
    <edge  id="-19613206#1" type="highway.residential" numLanes="1" speed="13.89" priority="4" shape="2554.45,4713.39,0.0 2523.92,4505.46,0.0 2515.04,4442.89,0.0 2506.62,4383.53,0.0 2496.04,4322.05,0.0 2482.95,4246.02,0.0 2480.07,4224.73,0.0 2473.94,4165.53,0.0 2467.66,4104.86,0.0 2447.72,3975.98,0.0 2428.01,3854.64,0.0 2410.85,3730.33,0.0 2401.25,3668.45,0.0 2392.05,3609.19,0.0 2372.75,3486.5,0.0 2355.39,3364.42,0.0" spreadType="right" name="Hawthorne Street" endOffset="0.0" from="203659705" to="203659675">
        <lane  index="0" width="3.0" speed="13.89" endOffset="0.0"/>
    </edge>
    <edge  id="-19613508" type="highway.residential" numLanes="1" speed="13.89" priority="4" shape="1587.11,3217.95,0.0 1575.93,3149.88,0.0 1565.62,3110.88,0.0 1517.13,2807.73,0.0" spreadType="right" name="Clark Place" endOffset="0.0" from="203651816" to="203661630">
        <lane  index="0" width="3.0" speed="13.89" endOffset="0.0"/>
    </edge>
    <edge  id="-19613526" type="highway.residential" numLanes="1" speed="13.89" priority="4" shape="1444.22,3186.63,0.0 1453.65,3184.79,0.0 1493.23,3175.48,0.0 1500.09,3230.25,0.0" spreadType="right" name="Granville Lane" endOffset="0.0" from="203661790" to="203651809">
        <lane  index="0" width="3.0" speed="13.89" endOffset="0.0"/>
    </edge>
    <edge  id="-19613927#0" type="highway.residential" numLanes="1" speed="13.89" priority="4" shape="1444.22,3186.63,0.0 1443.26,3178.88,0.0 1380.3,2825.98,0.0" spreadType="right" name="Stonewall Street" endOffset="0.0" from="203661790" to="203664938">
        <lane  index="0" width="3.0" speed="13.89" endOffset="0.0"/>
    </edge>
    <edge  id="-19613927#1" type="highway.residential" numLanes="1" speed="13.89" priority="4" shape="1450.77,3237.18,0.0 1444.22,3186.63,0.0" spreadType="right" name="Stonewall Street" endOffset="0.0" from="203651806" to="203661790">
        <lane  index="0" width="3.0" speed="13.89" endOffset="0.0"/>
    </edge>