<?xml version="1.0" encoding="UTF-8"?>
<routes>
    <vType  id="passenger1" length="4.3" width="1.8" height="1.5" personNumber="1" personCapacity="4" containerNumber="0" maxSpeed="50.0" accel="2.9" decel="7.5" tau="1.0" sigma="0.5" minGap="1.0" boardingDuration="0.5" loadingDuration="90.0" vClass="passenger" emissionClass="HBEFA3/PC" impatience="1.0" guiShape="passenger" color="185,85,255" lcStrategic="1.0" lcCooperative="1.0" lcSpeedGain="1.0" lcKeepRight="1.0" latAlignment="center" maxSpeedLat="1.0" minGapLat="0.12" lcSublane="1.0" lcPushy="0.0" laneChangeModel="LC2013"/>
    <vehicle  id="1" type="passenger1" depart="0" from="130097888#20" to="19623564#1" departLane="0" departPos="random_free" departSpeed="0.0" arrivalLane="0" arrivalPos="max" arrivalSpeed="0.0">
      <route  edges="130097888#20 -130097888#20 -130097888#19 -130097888#18 -130097888#17 -130097888#16 -130097888#15 -130097888#14 -130097888#13 -130097888#12 -130097888#11 -130097888#10 19623564#0 19623564#1" color="255,255,255"/>
    </vehicle>
    <vehicle  id="2" type="passenger1" depart="0" from="-19631509#4" to="19629027#0" departLane="0" departPos="random_free" departSpeed="0.0" arrivalLane="0" arrivalPos="max" arrivalSpeed="0.0">
      <route  edges="-19631509#4 19631509#4 19631509#5 38728369#9 38728369#10 38728369#11 38728369#12 38728369#13 38728369#14 38728369#15 38728369#16 38728369#17 38728369#18 38728369#19 38728369#20 38728369#21 38728369#22 38728369#23 38728369#24 38728369#25 38728369#26 38728369#27 38728369#28 19629027#0" color="255,255,255"/>
    </vehicle>
    <vehicle  id="3" type="passenger1" depart="0" from="38728369#3" to="38728369#27" departLane="0" departPos="random_free" departSpeed="0.0" arrivalLane="0" arrivalPos="max" arrivalSpeed="0.0">
      <route  edges="38728369#3 38728369#4 38728369#6 38728369#8 38728369#9 38728369#10 38728369#11 38728369#12 38728369#13 38728369#14 38728369#15 38728369#16 38728369#17 38728369#18 38728369#19 38728369#20 38728369#21 38728369#22 38728369#23 38728369#24 38728369#25 38728369#26 38728369#27" color="255,255,255"/>
    </vehicle>
    <vehicle  id="4" type="passenger1" depart="0" from="-130097888#21" to="-19623564#1" departLane="0" departPos="random_free" departSpeed="0.0" arrivalLane="0" arrivalPos="max" arrivalSpeed="0.0">
      <route  edges="-130097888#21 -130097888#20 -130097888#19 -130097888#18 -130097888#17 -130097888#16 -130097888#15 -130097888#14 -130097888#13 -130097888#12 -130097888#11 -130097888#10 19623564#0 19623564#1 -19623564#1" color="255,255,255"/>
    </vehicle>
    <vehicle  id="5" type="passenger1" depart="0" from="19633324#2" to="-19616957" departLane="0" departPos="random_free" departSpeed="0.0" arrivalLane="0" arrivalPos="max" arrivalSpeed="0.0">
      <route  edges="19633324#2 -19633324#2 -19633324#1 -19633324#0 41876057#1 -130097888#21 -130097888#20 -130097888#19 -130097888#18 -130097888#17 -130097888#16 -130097888#15 -130097888#14 -130097888#13 -130097888#12 -130097888#11 19616957 -19616957" color="255,255,255"/>
    </vehicle>
    <vehicle  id="6" type="passenger1" depart="0" from="19645442#1" to="-19643255#0" departLane="0" departPos="random_free" departSpeed="0.0" arrivalLane="0" arrivalPos="max" arrivalSpeed="0.0">
      <route  edges="19645442#1 19631509#5 38728369#9 38728369#10 38728369#11 38728369#12 38728369#13 38728369#14 38728369#15 38728369#16 38728369#17 38728369#18 38728369#19 38728369#20 38728369#21 38728369#22 38728369#23 38728369#24 38728369#25 38728369#26 38728369#27 38728369#28 19629027#0 19608619 -19643255#0" color="255,255,255"/>
    </vehicle>
    <vehicle  id="7" type="passenger1" depart="0" from="19633324#3" to="-38728369#28" departLane="0" departPos="random_free" departSpeed="0.0" arrivalLane="0" arrivalPos="max" arrivalSpeed="0.0">
      <route  edges="19633324#3 19633324#4 19633324#5 38728369#6 38728369#8 38728369#9 38728369#10 38728369#11 38728369#12 38728369#13 38728369#14 38728369#15 38728369#16 38728369#17 38728369#18 38728369#19 38728369#20 38728369#21 38728369#22 38728369#23 38728369#24 38728369#25 38728369#26 38728369#27 38728369#28 -38728369#28" color="255,255,255"/>
    </vehicle>
    <vehicle  id="8" type="passenger1" depart="0" from="19645442#2" to="19623564#3" departLane="0" departPos="random_free" departSpeed="0.0" arrivalLane="0" arrivalPos="max" arrivalSpeed="0.0">
      <route  edges="19645442#2 19649418#7 38728369#12 38728369#13 38728369#14 38728369#15 38728369#16 38728369#17 38728369#18 38728369#19 38728369#20 38728369#21 38728369#22 38728369#23 38728369#24 38728369#25 38728369#26 38728369#27 -19623564#3 19623564#3" color="255,255,255"/>
    </vehicle>
    <vehicle  id="9" type="passenger1" depart="0" from="-19633324#6" to="19641153" departLane="0" departPos="random_free" departSpeed="0.0" arrivalLane="0" arrivalPos="max" arrivalSpeed="0.0">
      <route  edges="-19633324#6 19633324#5 38728369#6 38728369#8 38728369#9 38728369#10 38728369#11 38728369#12 38728369#13 38728369#14 38728369#15 38728369#16 38728369#17 38728369#18 38728369#19 38728369#20 38728369#21 38728369#22 38728369#23 38728369#24 38728369#25 38728369#26 38728369#27 -19623564#3 19641153" color="255,255,255"/>
    </vehicle>
    <vehicle  id="10" type="passenger1" depart="0" from="-19618854#1" to="19623564#3" departLane="0" departPos="random_free" departSpeed="0.0" arrivalLane="0" arrivalPos="max" arrivalSpeed="0.0">
      <route  edges="-19618854#1 19633324#2 19633324#3 19633324#4 19633324#5 38728369#6 38728369#8 38728369#9 38728369#10 38728369#11 38728369#12 38728369#13 38728369#14 38728369#15 38728369#16 38728369#17 38728369#18 38728369#19 38728369#20 38728369#21 38728369#22 38728369#23 38728369#24 38728369#25 38728369#26 38728369#27 -19623564#3 19623564#3" color="255,255,255"/>
    </vehicle>
    <vehicle  id="11" type="passenger1" depart="0" from="-19633324#6" to="130097888#3" departLane="0" departPos="random_free" departSpeed="0.0" arrivalLane="0" arrivalPos="max" arrivalSpeed="0.0">
      <route  edges="-19633324#6 19633324#5 38728369#6 38728369#8 38728369#9 38728369#10 38728369#11 38728369#12 38728369#13 38728369#14 38728369#15 38728369#16 38728369#17 38728369#18 38728369#19 38728369#20 38728369#21 38728369#22 38728369#23 38728369#24 38728369#25 38728369#26 38728369#27 38728369#28 38728369#29 38728369#30 38728369#31 38728369#32 38728369#33 38728369#34 -19628050#8 -19628050#7 -19628050#6 -19628050#5 -19628050#4 -19628050#3 -19628050#1 -19628050#0 130097888#2 130097888#3" color="255,255,255"/>
    </vehicle>
    <vehicle  id="12" type="passenger1" depart="0" from="19631509#4" to="19645123#0" departLane="0" departPos="random_free" departSpeed="0.0" arrivalLane="0" arrivalPos="max" arrivalSpeed="0.0">
      <route  edges="19631509#4 19631509#5 38728369#9 38728369#10 38728369#11 38728369#12 38728369#13 38728369#14 38728369#15 38728369#16 38728369#17 38728369#18 38728369#19 38728369#20 38728369#21 38728369#22 38728369#23 38728369#24 38728369#25 38728369#26 38728369#27 -19623564#3 -19623564#2 -19623564#1 -19623564#0 -130097888#9 -130097888#8 -130097888#7 -130097888#6 -130097888#5 398895505 19645123#0" color="255,255,255"/>
    </vehicle>
    <vehicle  id="13" type="passenger1" depart="0" from="19631509#4" to="303684598" departLane="0" departPos="random_free" departSpeed="0.0" arrivalLane="0" arrivalPos="max" arrivalSpeed="0.0">
      <route  edges="19631509#4 19631509#5 38728369#9 38728369#10 38728369#11 38728369#12 38728369#13 38728369#14 38728369#15 38728369#16 38728369#17 38728369#18 38728369#19 38728369#20 38728369#21 38728369#22 38728369#23 38728369#24 38728369#25 38728369#26 38728369#27 38728369#28 38728369#29 38728369#30 38728369#31 38728369#32 38728369#33 38728369#34 -19628050#8 -19628050#7 -19628050#6 -19628050#5 -19628050#4 -19628050#3 -19628050#1 -19628050#0 130097888#2 303684598" color="255,255,255"/>
    </vehicle>
    <vehicle  id="14" type="passenger1" depart="0" from="38728369#6" to="19656059" departLane="0" departPos="random_free" departSpeed="0.0" arrivalLane="0" arrivalPos="max" arrivalSpeed="0.0">
      <route  edges="38728369#6 38728369#8 38728369#9 38728369#10 38728369#11 38728369#12 38728369#13 38728369#14 38728369#15 38728369#16 38728369#17 38728369#18 38728369#19 38728369#20 38728369#21 38728369#22 38728369#23 38728369#24 38728369#25 38728369#26 38728369#27 38728369#28 38728369#29 38728369#30 38728369#31 19656059" color="255,255,255"/>
    </vehicle>
    <vehicle  id="15" type="passenger1" depart="0" from="-19633324#3" to="130097888#5" departLane="0" departPos="random_free" departSpeed="0.0" arrivalLane="0" arrivalPos="max" arrivalSpeed="0.0">
      <route  edges="-19633324#3 -19633324#2 -19633324#1 -19633324#0 41876057#1 -130097888#21 -130097888#20 -130097888#19 -130097888#18 -130097888#17 -130097888#16 -130097888#15 -130097888#14 -130097888#13 -130097888#12 -130097888#11 -130097888#10 -130097888#9 -130097888#8 -130097888#7 -130097888#6 -130097888#5 130097888#5" color="255,255,255"/>
    </vehicle>
    <vehicle  id="16" type="passenger1" depart="0" from="19618854#1" to="-38723103#3" departLane="0" departPos="random_free" departSpeed="0.0" arrivalLane="0" arrivalPos="max" arrivalSpeed="0.0">
      <route  edges="19618854#1 -19631509#1 -19631509#0 19640720#0 19640720#1 19640720#2 25887664#5 19640721#0 -38723103#3" color="255,255,255"/>
    </vehicle>
    <vehicle  id="17" type="passenger1" depart="0" from="38723155#1" to="97954660#2" departLane="0" departPos="random_free" departSpeed="0.0" arrivalLane="0" arrivalPos="max" arrivalSpeed="0.0">
      <route  edges="38723155#1 -19633324#3 -19633324#2 -19633324#1 -19633324#0 19620444#0 19620444#1 19620444#2 19620444#3 19620444#4 19620444#5 97954660#2" color="255,255,255"/>
    </vehicle>
    <vehicle  id="18" type="passenger1" depart="0" from="19645442#1" to="19615806#1" departLane="0" departPos="random_free" departSpeed="0.0" arrivalLane="0" arrivalPos="max" arrivalSpeed="0.0">
      <route  edges="19645442#1 -19645442#1 -19633324#4 -19633324#3 -19633324#2 -19633324#1 -19633324#0 19620444#0 19620444#1 25887664#3 25887664#4 25887664#5 25887664#6 25887664#7 19615806#0 19615806#1" color="255,255,255"/>
    </vehicle>
    <vehicle  id="19" type="passenger1" depart="0" from="19633324#5" to="-19640721#0" departLane="0" departPos="random_free" departSpeed="0.0" arrivalLane="0" arrivalPos="max" arrivalSpeed="0.0">
      <route  edges="19633324#5 -19633324#6 -19633324#4 -19633324#3 -19633324#2 -19633324#1 -19633324#0 19620444#0 19620444#1 25887664#3 25887664#4 25887664#5 19640721#0 -19640721#0" color="255,255,255"/>
    </vehicle>
    <vehicle  id="20" type="passenger1" depart="0" from="-130097888#19" to="19615292#0" departLane="0" departPos="random_free" departSpeed="0.0" arrivalLane="0" arrivalPos="max" arrivalSpeed="0.0">
      <route  edges="-130097888#19 19658738#0 19658738#1 -25887664#7 -25887664#6 -25887664#5 -25887664#4 19615292#0" color="255,255,255"/>
    </vehicle>
    <vehicle  id="21" type="passenger1" depart="0" from="-19649418#3" to="19649020#1" departLane="0" departPos="random_free" departSpeed="0.0" arrivalLane="0" arrivalPos="max" arrivalSpeed="0.0">
      <route  edges="-19649418#3 -19649418#2 -19649418#1 -19649418#0 19658738#0 19658738#1 25887664#8 25887664#9 25887664#10 25887664#11 19649020#0 19649020#1" color="255,255,255"/>
    </vehicle>
    <vehicle  id="22" type="passenger1" depart="0" from="-19645442#1" to="-19642356" departLane="0" departPos="random_free" departSpeed="0.0" arrivalLane="0" arrivalPos="max" arrivalSpeed="0.0">
      <route  edges="-19645442#1 -19633324#4 -19633324#3 -19633324#2 -19633324#1 -19633324#0 19620444#0 19620444#1 25887664#3 25887664#4 25887664#5 25887664#6 25887664#7 25887664#8 25887664#9 25887664#10 25887664#11 25887664#12 398903630#0 398903630#1 398903630#2 398903630#3 19642356 -19642356" color="255,255,255"/>
    </vehicle>
    <vehicle  id="23" type="passenger1" depart="0" from="38723155#1" to="-19627529#2" departLane="0" departPos="random_free" departSpeed="0.0" arrivalLane="0" arrivalPos="max" arrivalSpeed="0.0">
      <route  edges="38723155#1 -19633324#3 -19633324#2 -19633324#1 -19633324#0 19620444#0 19620444#1 25887664#3 25887664#4 25887664#5 25887664#6 25887664#7 25887664#8 25887664#9 25887664#10 19627529#2 -19627529#2" color="255,255,255"/>
    </vehicle>
    <vehicle  id="24" type="passenger1" depart="0" from="-130097888#20" to="-398903630#2" departLane="0" departPos="random_free" departSpeed="0.0" arrivalLane="0" arrivalPos="max" arrivalSpeed="0.0">
      <route  edges="-130097888#20 19638217#0 19638217#1 19638217#2 25887664#7 25887664#8 25887664#9 25887664#10 25887664#11 25887664#12 398903630#0 398903630#1 398903630#2 -398903630#2" color="255,255,255"/>
    </vehicle>

    <vehicle  id="25" type="passenger1" depart="0" from="-19631509#3" to="398903630#3" departLane="0" departPos="random_free" departSpeed="0.0" arrivalLane="0" arrivalPos="max" arrivalSpeed="0.0">
      <route  edges="-19631509#3 -19631509#2 -19631509#1 -19631509#0 19640720#0 19640720#1 19640720#2 25887664#5 25887664#6 25887664#7 25887664#8 25887664#9 25887664#10 25887664#11 25887664#12 398903630#0 398903630#1 398903630#2 398903630#3" color="255,255,255"/>
    </vehicle>


    <vehicle  id="26" type="passenger1" depart="0" from="-19633324#6" to="19644607#1" departLane="0" departPos="random_free" departSpeed="0.0" arrivalLane="0" arrivalPos="max" arrivalSpeed="0.0">
      <route  edges="-19633324#6 -19633324#4 -19633324#3 -19633324#2 -19633324#1 -19633324#0 19620444#0 19620444#1 25887664#3 25887664#4 25887664#5 25887664#6 25887664#7 25887664#8 25887664#9 25887664#10 25887664#11 25887664#12 398903630#0 398903630#1 398903630#2 398903630#3 398903630#5 100281069#0 19644607#1" color="255,255,255"/>
    </vehicle>
    <vehicle  id="27" type="passenger1" depart="0" from="38723155#1" to="19644607#3" departLane="0" departPos="random_free" departSpeed="0.0" arrivalLane="0" arrivalPos="max" arrivalSpeed="0.0">
      <route  edges="38723155#1 -19633324#3 -19633324#2 -19633324#1 -19633324#0 19620444#0 19620444#1 19620444#2 19620444#3 19620444#4 19620444#5 97954660#2 97954660#3 97954660#4 97954660#5 97954660#6 165538136#0 165538136#1 165538136#2 165538136#3 165538136#4 -19644607#3 19644607#3" color="255,255,255"/>
    </vehicle>
    <vehicle  id="28" type="passenger1" depart="0" from="38723155#1" to="-100281069#1" departLane="0" departPos="random_free" departSpeed="0.0" arrivalLane="0" arrivalPos="max" arrivalSpeed="0.0">
      <route  edges="38723155#1 -19633324#3 -19633324#2 -19633324#1 -19633324#0 19620444#0 19620444#1 25887664#3 25887664#4 25887664#5 25887664#6 25887664#7 25887664#8 25887664#9 25887664#10 25887664#11 25887664#12 398903630#0 398903630#1 398903630#2 398903630#3 398903630#5 100281069#0 100281069#1 -100281069#1" color="255,255,255"/>
    </vehicle>
    <vehicle  id="29" type="passenger1" depart="0" from="19633324#0" to="-19644607#3" departLane="0" departPos="random_free" departSpeed="0.0" arrivalLane="0" arrivalPos="max" arrivalSpeed="0.0">
      <route  edges="19633324#0 -19633324#0 19620444#0 19620444#1 19620444#2 19620444#3 19620444#4 19620444#5 97954660#2 97954660#3 97954660#4 97954660#5 97954660#6 165538136#0 165538136#1 165538136#2 165538136#3 165538136#4 -19644607#3" color="255,255,255"/>
    </vehicle>
    <vehicle  id="30" type="passenger1" depart="0" from="19633324#2" to="19615846#0" departLane="0" departPos="random_free" departSpeed="0.0" arrivalLane="0" arrivalPos="max" arrivalSpeed="0.0">
      <route  edges="19633324#2 -19633324#2 -19633324#1 -19633324#0 19620444#0 19620444#1 25887664#3 25887664#4 25887664#5 25887664#6 25887664#7 25887664#8 25887664#9 25887664#10 25887664#11 25887664#12 398903630#0 398903630#1 398903630#2 398903630#3 398903630#5 100281069#0 100281069#1 100281069#2 100281069#3 19615846#0" color="255,255,255"/>
    </vehicle>
</routes>
