<?xml version="1.0" encoding="UTF-8"?>

<!-- generated on Tue Feb  6 09:29:19 2018 by SUMO netconvert Version 0.32.0
<?xml version="1.0" encoding="UTF-8"?>

<configuration xmlns:xsi="http://www.w3.org/2001/XMLSchema-instance" xsi:noNamespaceSchemaLocation="http://sumo.dlr.de/xsd/netconvertConfiguration.xsd">

    <input>
        <node-files value="osm.nod.xml"/>
        <edge-files value="osm.edg.xml"/>
        <connection-files value="osm.con.xml"/>
        <tllogic-files value="osm.tll.xml"/>
    </input>

    <output>
        <output-file value="osm.net.xml"/>
        <output.street-names value="true"/>
    </output>

    <processing>
        <ignore-errors.edge-type value="true"/>
    </processing>

    <report>
        <verbose value="true"/>
    </report>

</configuration>
-->

<net version="0.27" xmlns:xsi="http://www.w3.org/2001/XMLSchema-instance" xsi:noNamespaceSchemaLocation="http://sumo.dlr.de/xsd/net_file.xsd">

    <location netOffset="-224272.48,-3889867.94" convBoundary="0.00,0.00,3942.08,5572.25" origBoundary="-90.026039,35.114782,-89.983068,35.164898" projParameter="+proj=utm +zone=16 +ellps=WGS84 +datum=WGS84 +units=m +no_defs"/>

    <edge id=":1235932147_0" function="internal">
        <lane id=":1235932147_0_0" index="0" speed="13.89" length="5.64" width="3.00" shape="3161.40,3155.02 3160.06,3155.11 3159.05,3155.74 3158.37,3156.91 3158.02,3158.62"/>
    </edge>
    <edge id=":1235932147_1" function="internal">
        <lane id=":1235932147_1_0" index="0" speed="13.89" length="9.68" width="3.00" shape="3161.40,3155.02 3158.56,3154.73 3156.59,3154.71 3154.63,3154.98 3151.81,3155.54"/>
    </edge>
    <edge id=":1235932147_2" function="internal">
        <lane id=":1235932147_2_0" index="0" speed="13.89" length="9.85" width="3.00" shape="3161.40,3155.02 3158.77,3154.33 3156.96,3152.99 3155.98,3150.99 3155.84,3148.34"/>
    </edge>
    <edge id=":1235932147_3" function="internal">

        <lane id=":1235932147_3_0" index="0" speed="13.89" length="4.53" width="3.00" shape="3161.40,3155.02 3160.34,3154.11 3160.05,3153.30 3160.52,3152.57 3161.77,3151.94"/>
    </edge>
    <edge id=":1235932147_4" function="internal">
        <lane id=":1235932147_4_0" index="0" speed="13.89" length="4.95" width="3.00" shape="3158.93,3148.62 3159.00,3149.93 3159.50,3150.92 3160.43,3151.59 3161.77,3151.94"/>
    </edge>
    <edge id=":1235932147_5" function="internal">
        <lane id=":1235932147_5_0" index="0" speed="13.89" length="10.04" width="3.00" shape="3158.93,3148.62 3158.02,3158.62"/>
    </edge>
    <edge id=":1235932147_6" function="internal">
        <lane id=":1235932147_6_0" index="0" speed="13.89" length="10.72" width="3.00" shape="3158.93,3148.62 3158.29,3151.16 3156.89,3153.15 3154.74,3154.61 3151.81,3155.54"/>
    </edge>
    <edge id=":1235932147_7" function="internal">
        <lane id=":1235932147_7_0" index="0" speed="13.89" length="4.53" width="3.00" shape="3158.93,3148.62 3158.05,3149.71 3157.24,3150.03 3156.51,3149.57 3155.84,3148.34"/>
    </edge>
    <edge id=":1235932147_8" function="internal">
        <lane id=":1235932147_8_0" index="0" speed="13.89" length="6.71" width="3.00" shape="3151.21,3152.50 3153.12,3151.91 3154.53,3151.03 3155.44,3149.84 3155.84,3148.34"/>
    </edge>
    <edge id=":1235932147_9" function="internal">
        <lane id=":1235932147_9_0" index="0" speed="13.89" length="10.65" width="3.00" shape="3151.21,3152.50 3154.23,3151.92 3156.47,3151.63 3158.71,3151.64 3161.77,3151.94"/>
    </edge>
    <edge id=":1235932147_10" function="internal">
        <lane id=":1235932147_10_0" index="0" speed="13.89" length="11.32" width="3.00" shape="3151.21,3152.50 3154.45,3152.32 3156.66,3153.28 3157.86,3155.38 3158.02,3158.62"/>
    </edge>
    <edge id=":1235932147_11" function="internal">
        <lane id=":1235932147_11_0" index="0" speed="13.89" length="4.53" width="3.00" shape="3151.21,3152.50 3152.50,3153.03 3153.03,3153.71 3152.80,3154.55 3151.81,3155.54"/>
    </edge>
    <edge id=":1235932147_12" function="internal">
        <lane id=":1235932147_12_0" index="0" speed="13.89" length="5.55" width="3.00" shape="3154.93,3158.34 3155.12,3156.81 3154.66,3155.83 3153.56,3155.40 3151.81,3155.54"/>
    </edge>
    <edge id=":1235932147_13" function="internal">
        <lane id=":1235932147_13_0" index="0" speed="13.89" length="10.08" width="3.00" shape="3154.93,3158.34 3155.58,3155.45 3155.72,3153.40 3155.70,3151.33 3155.84,3148.34"/>
    </edge>
    <edge id=":1235932147_14" function="internal">
        <lane id=":1235932147_14_0" index="0" speed="13.89" length="10.28" width="3.00" shape="3154.93,3158.34 3156.09,3155.32 3157.61,3153.25 3159.51,3152.12 3161.77,3151.94"/>
    </edge>
    <edge id=":1235932147_15" function="internal">
        <lane id=":1235932147_15_0" index="0" speed="13.89" length="4.53" width="3.00" shape="3154.93,3158.34 3155.81,3157.25 3156.62,3156.94 3157.36,3157.39 3158.02,3158.62"/>
    </edge>
    <edge id=":1235932193_0" function="internal">
        <lane id=":1235932193_0_0" index="0" allow="delivery bicycle" speed="13.80" length="8.62" width="3.00" shape="3020.76,3356.91 3018.65,3355.43 3017.18,3354.33 3015.59,3353.64 3013.13,3353.45"/>
    </edge>
    <edge id=":1235932193_1" function="internal">
        <lane id=":1235932193_1_0" index="0" speed="13.85" length="13.39" width="3.00" shape="3020.76,3356.91 3017.60,3354.35 3016.63,3351.91 3017.87,3349.60 3021.30,3347.41"/>
    </edge>
    <edge id=":1235932193_2" function="internal">
        <lane id=":1235932193_2_0" index="0" allow="delivery bicycle" speed="13.80" length="4.53" width="3.00" shape="3020.76,3356.91 3020.18,3355.65 3020.26,3354.78 3020.99,3354.33 3022.39,3354.27"/>
    </edge>
    <edge id=":1235932193_3" function="internal">
        <lane id=":1235932193_3_0" index="0" allow="delivery bicycle" speed="13.85" length="5.72" width="3.00" shape="3022.62,3350.22 3021.15,3351.15 3020.62,3352.14 3021.04,3353.18 3022.39,3354.27"/>
    </edge>
    <edge id=":1235932193_4" function="internal">
        <lane id=":1235932193_4_0" index="0" allow="delivery bicycle" speed="13.85" length="10.17" width="3.00" shape="3022.62,3350.22 3019.93,3351.60 3018.05,3352.59 3016.08,3353.20 3013.13,3353.45"/>
    </edge>
    <edge id=":1235932193_5" function="internal">
        <lane id=":1235932193_5_0" index="0" speed="13.89" length="4.53" width="3.00" shape="3022.62,3350.22 3021.23,3350.01 3020.55,3349.47 3020.58,3348.61 3021.30,3347.41"/>
    </edge>
    <edge id=":1235932193_6" function="internal">
        <lane id=":1235932193_6_0" index="0" speed="13.85" length="8.88" width="3.00" shape="3013.06,3350.35 3015.64,3350.11 3017.34,3349.54 3018.96,3348.64 3021.30,3347.41"/>
    </edge>
    <edge id=":1235932193_7" function="internal">
        <lane id=":1235932193_7_0" index="0" allow="delivery bicycle" speed="13.80" length="10.38" width="3.00" shape="3013.06,3350.35 3016.03,3350.55 3018.00,3351.29 3019.84,3352.54 3022.39,3354.27"/>
    </edge>
    <edge id=":1235932193_8" function="internal">
        <lane id=":1235932193_8_0" index="0" allow="delivery bicycle" speed="13.80" length="4.53" width="3.00" shape="3013.06,3350.35 3014.24,3351.10 3014.64,3351.87 3014.27,3352.65 3013.13,3353.45"/>
    </edge>
    <edge id=":1235932209_0" function="internal">
        <lane id=":1235932209_0_0" index="0" speed="13.89" length="4.53" width="3.00" shape="3532.88,3129.98 3534.27,3130.10 3534.99,3130.59 3535.02,3131.46 3534.38,3132.70"/>
    </edge>
    <edge id=":1235932243_0" function="internal">
        <lane id=":1235932243_0_0" index="0" speed="13.89" length="12.22" width="3.00" shape="2785.68,3132.76 2780.23,3121.83"/>
    </edge>
    <edge id=":1235932243_1" function="internal">
        <lane id=":1235932243_1_0" index="0" speed="13.89" length="16.86" width="3.00" shape="2785.68,3132.76 2783.81,3127.59 2784.31,3124.70 2787.18,3124.11 2792.41,3125.82"/>
    </edge>
    <edge id=":1235932243_2" function="internal">
        <lane id=":1235932243_2_0" index="0" speed="13.89" length="4.53" width="3.00" shape="2785.68,3132.76 2785.87,3131.38 2786.40,3130.69 2787.27,3130.70 2788.47,3131.41"/>
    </edge>
    <edge id=":1235932243_3" function="internal">
        <lane id=":1235932243_3_0" index="0" speed="13.89" length="6.71" width="3.00" shape="2791.15,3128.65 2789.07,3127.97 2787.93,3128.21 2787.73,3129.35 2788.47,3131.41"/>
    </edge>
    <edge id=":1235932243_4" function="internal">
        <lane id=":1235932243_4_0" index="0" speed="13.89" length="13.17" width="3.00" shape="2791.15,3128.65 2787.86,3127.34 2784.90,3126.11 2782.33,3124.45 2780.23,3121.83"/>
    </edge>
    <edge id=":1235932243_5" function="internal">
        <lane id=":1235932243_5_0" index="0" speed="13.89" length="4.53" width="3.00" shape="2791.15,3128.65 2790.40,3127.47 2790.36,3126.60 2791.03,3126.05 2792.41,3125.82"/>
    </edge>
    <edge id=":1235932243_6" function="internal">
        <lane id=":1235932243_6_0" index="0" speed="13.89" length="11.31" width="3.00" shape="2782.92,3120.30 2784.80,3122.72 2786.88,3123.93 2789.35,3124.71 2792.41,3125.82"/>
    </edge>
    <edge id=":1235932243_7" function="internal">
        <lane id=":1235932243_7_0" index="0" speed="13.89" length="12.42" width="3.00" shape="2782.92,3120.30 2788.47,3131.41"/>
    </edge>
    <edge id=":1235932243_8" function="internal">
        <lane id=":1235932243_8_0" index="0" speed="13.89" length="4.53" width="3.00" shape="2782.92,3120.30 2782.82,3121.70 2782.34,3122.42 2781.47,3122.46 2780.23,3121.83"/>
    </edge>
    <edge id=":1235932274_0" function="internal">
        <lane id=":1235932274_0_0" index="0" speed="13.89" length="8.30" width="3.00" shape="2814.89,3216.80 2814.83,3214.34 2814.74,3212.64 2814.47,3210.98 2813.86,3208.60"/>
    </edge>
    <edge id=":1235932274_1" function="internal">
        <lane id=":1235932274_1_0" index="0" allow="delivery bicycle" speed="13.85" length="10.93" width="3.00" shape="2814.89,3216.80 2815.23,3213.73 2816.49,3211.72 2818.67,3210.78 2821.76,3210.90"/>
    </edge>
    <edge id=":1235932274_2" function="internal">
        <lane id=":1235932274_2_0" index="0" speed="13.89" length="4.53" width="3.00" shape="2814.89,3216.80 2815.63,3215.61 2816.39,3215.20 2817.18,3215.56 2817.99,3216.70"/>
    </edge>
    <edge id=":1235932274_3" function="internal">
        <lane id=":1235932274_3_0" index="0" speed="13.85" length="5.09" width="3.00" shape="2821.19,3213.95 2819.75,3213.89 2818.74,3214.33 2818.15,3215.27 2817.99,3216.70"/>
    </edge>
    <edge id=":1235932274_4" function="internal">
        <lane id=":1235932274_4_0" index="0" speed="13.85" length="9.57" width="3.00" shape="2821.19,3213.95 2818.42,3213.19 2816.28,3212.04 2814.76,3210.51 2813.86,3208.60"/>
    </edge>
    <edge id=":1235932274_5" function="internal">
        <lane id=":1235932274_5_0" index="0" allow="delivery bicycle" speed="13.80" length="4.53" width="3.00" shape="2821.19,3213.95 2820.19,3212.98 2819.95,3212.14 2820.47,3211.45 2821.76,3210.90"/>
    </edge>
    <edge id=":1235932274_6" function="internal">
        <lane id=":1235932274_6_0" index="0" allow="delivery bicycle" speed="13.85" length="6.11" width="3.00" shape="2816.85,3207.77 2817.40,3208.84 2818.40,3209.72 2819.86,3210.41 2821.76,3210.90"/>
    </edge>
    <edge id=":1235932274_7" function="internal">
        <lane id=":1235932274_7_0" index="0" speed="13.89" length="9.05" width="3.00" shape="2816.85,3207.77 2817.52,3210.36 2817.82,3212.17 2817.92,3214.02 2817.99,3216.70"/>
    </edge>
    <edge id=":1235932274_8" function="internal">
        <lane id=":1235932274_8_0" index="0" speed="13.89" length="4.53" width="3.00" shape="2816.85,3207.77 2816.42,3209.09 2815.77,3209.68 2814.92,3209.51 2813.86,3208.60"/>
    </edge>
    <edge id=":1235932304_0" function="internal">
        <lane id=":1235932304_0_0" index="0" speed="20.84" length="5.85" width="3.00" shape="3173.77,3013.60 3172.58,3014.02 3171.68,3014.90 3171.07,3016.25 3170.74,3018.06"/>
    </edge>
    <edge id=":1235932304_1" function="internal">
        <lane id=":1235932304_1_0" index="0" speed="27.78" length="9.26" width="3.00" shape="3173.77,3013.60 3164.60,3014.88"/>
    </edge>
    <edge id=":1235932304_2" function="internal">
        <lane id=":1235932304_2_0" index="0" speed="27.78" length="8.29" width="3.00" shape="3173.77,3013.60 3169.84,3011.70 3168.30,3009.46 3169.17,3006.89 3172.44,3003.99"/>
        <lane id=":1235932304_2_1" index="1" speed="27.78" length="8.29" shape="3173.33,3010.43 3171.99,3009.78 3171.47,3009.02"/>
    </edge>
    <edge id=":1235932304_11" function="internal">
        <lane id=":1235932304_11_0" index="0" speed="27.78" length="2.41" shape="3171.47,3009.02 3171.77,3008.15 3172.88,3007.16"/>
    </edge>
    <edge id=":1235932304_4" function="internal">
        <lane id=":1235932304_4_0" index="0" speed="27.78" length="9.27" width="3.00" shape="3163.26,3005.27 3172.44,3003.99"/>
    </edge>
    <edge id=":1235932304_5" function="internal">
        <lane id=":1235932304_5_0" index="0" speed="20.84" length="17.51" width="3.00" shape="3163.26,3005.27 3167.01,3005.61 3169.50,3007.86 3170.75,3012.01 3170.74,3018.06"/>
    </edge>
    <edge id=":1235932304_6" function="internal">
        <lane id=":1235932304_6_0" index="0" speed="27.78" length="8.29" width="3.00" shape="3163.26,3005.27 3167.20,3007.17 3168.73,3009.40 3167.87,3011.97 3164.60,3014.88"/>
        <lane id=":1235932304_6_1" index="1" speed="27.78" length="8.29" shape="3163.70,3008.44 3165.04,3009.08 3165.56,3009.84"/>
    </edge>
    <edge id=":1235932304_12" function="internal">
        <lane id=":1235932304_12_0" index="0" speed="27.78" length="2.41" shape="3165.56,3009.84 3165.27,3010.72 3164.16,3011.71"/>
    </edge>
    <edge id=":1235932304_8" function="internal">
        <lane id=":1235932304_8_0" index="0" speed="20.84" length="5.11" width="3.00" shape="3167.65,3017.78 3167.57,3016.34 3167.04,3015.37 3166.05,3014.88 3164.60,3014.88"/>
    </edge>
    <edge id=":1235932304_9" function="internal">
        <lane id=":1235932304_9_0" index="0" speed="20.84" length="15.19" width="3.00" shape="3167.65,3017.78 3168.40,3011.94 3169.45,3007.69 3170.79,3005.04 3172.44,3003.99"/>
    </edge>
    <edge id=":1235932304_10" function="internal">
        <lane id=":1235932304_10_0" index="0" speed="13.89" length="4.53" width="3.00" shape="3167.65,3017.78 3168.53,3016.70 3169.33,3016.38 3170.07,3016.84 3170.74,3018.06"/>
    </edge>
    <edge id=":1235932369_0" function="internal">
        <lane id=":1235932369_0_0" index="0" speed="13.89" length="13.75" width="3.00" shape="3124.87,3277.88 3121.18,3291.12"/>
    </edge>
    <edge id=":1235932369_1" function="internal">
        <lane id=":1235932369_1_0" index="0" speed="13.89" length="14.54" width="3.00" shape="3124.87,3277.88 3123.31,3281.08 3120.89,3283.67 3118.01,3285.95 3115.04,3288.25"/>
    </edge>
    <edge id=":1235932369_2" function="internal">
        <lane id=":1235932369_2_0" index="0" speed="13.89" length="4.53" width="3.00" shape="3124.87,3277.88 3123.81,3278.79 3122.96,3278.95 3122.32,3278.37 3121.88,3277.04"/>
    </edge>
    <edge id=":1235932369_3" function="internal">
        <lane id=":1235932369_3_0" index="0" speed="13.89" length="12.77" width="3.00" shape="3113.05,3285.87 3115.86,3283.82 3118.41,3282.06 3120.48,3280.01 3121.88,3277.04"/>
    </edge>
    <edge id=":1235932369_4" function="internal">
        <lane id=":1235932369_4_0" index="0" speed="13.89" length="18.83" width="3.00" shape="3113.05,3285.87 3118.25,3282.29 3121.33,3281.97 3122.31,3284.91 3121.18,3291.12"/>
    </edge>
    <edge id=":1235932369_5" function="internal">
        <lane id=":1235932369_5_0" index="0" speed="13.89" length="4.53" width="3.00" shape="3113.05,3285.87 3114.44,3285.72 3115.24,3286.07 3115.44,3286.91 3115.04,3288.25"/>
    </edge>
    <edge id=":1235932369_6" function="internal">
        <lane id=":1235932369_6_0" index="0" speed="13.89" length="7.31" width="3.00" shape="3118.20,3290.29 3118.63,3287.88 3118.25,3286.74 3117.06,3286.86 3115.04,3288.25"/>
    </edge>
    <edge id=":1235932369_7" function="internal">
        <lane id=":1235932369_7_0" index="0" speed="13.89" length="13.75" width="3.00" shape="3118.20,3290.29 3121.88,3277.04"/>
    </edge>
    <edge id=":1235932369_8" function="internal">
        <lane id=":1235932369_8_0" index="0" speed="13.89" length="4.53" width="3.00" shape="3118.20,3290.29 3119.25,3289.38 3120.11,3289.21 3120.75,3289.79 3121.18,3291.12"/>
    </edge>
    <edge id=":1235932399_0" function="internal">
        <lane id=":1235932399_0_0" index="0" speed="13.89" length="5.89" width="3.00" shape="2828.56,3401.61 2827.28,3400.32 2826.20,3400.01 2825.31,3400.70 2824.61,3402.37"/>
    </edge>
    <edge id=":1235932399_1" function="internal">
        <lane id=":1235932399_1_0" index="0" speed="13.89" length="15.99" width="3.00" shape="2828.56,3401.61 2826.47,3398.32 2824.80,3394.58 2823.63,3390.65 2823.05,3386.79"/>
    </edge>
    <edge id=":1235932399_2" function="internal">
        <lane id=":1235932399_2_0" index="0" allow="delivery bicycle" speed="13.85" length="15.23" width="3.00" shape="2828.56,3401.61 2826.59,3398.07 2826.15,3394.63 2827.24,3391.28 2829.87,3388.02"/>
    </edge>
    <edge id=":1235932399_3" function="internal">
        <lane id=":1235932399_3_0" index="0" speed="13.89" length="4.53" width="3.00" shape="2828.56,3401.61 2828.47,3400.22 2828.85,3399.44 2829.70,3399.28 2831.02,3399.73"/>
    </edge>
    <edge id=":1235932399_4" function="internal">
        <lane id=":1235932399_4_0" index="0" speed="13.85" length="10.60" width="3.00" shape="2832.00,3390.28 2830.15,3392.56 2829.37,3394.89 2829.66,3397.28 2831.02,3399.73"/>
    </edge>
    <edge id=":1235932399_5" function="internal">
        <lane id=":1235932399_5_0" index="0" speed="13.85" length="14.35" width="3.00" shape="2832.00,3390.28 2829.50,3392.94 2827.44,3395.81 2825.82,3398.93 2824.61,3402.37"/>
    </edge>
    <edge id=":1235932399_6" function="internal">
        <lane id=":1235932399_6_0" index="0" speed="13.85" length="14.42" width="3.00" shape="2832.00,3390.28 2828.38,3392.95 2825.69,3393.26 2823.91,3391.21 2823.05,3386.79"/>
    </edge>
    <edge id=":1235932399_7" function="internal">
        <lane id=":1235932399_7_0" index="0" allow="delivery bicycle" speed="13.80" length="4.53" width="3.00" shape="2832.00,3390.28 2830.62,3390.51 2829.81,3390.22 2829.56,3389.39 2829.87,3388.02"/>
    </edge>
    <edge id=":1235932399_8" function="internal">
        <lane id=":1235932399_8_0" index="0" allow="delivery bicycle" speed="13.85" length="6.00" width="3.00" shape="2826.14,3386.57 2826.50,3388.41 2827.24,3389.27 2828.36,3389.14 2829.87,3388.02"/>
    </edge>
    <edge id=":1235932399_9" function="internal">
        <lane id=":1235932399_9_0" index="0" speed="13.89" length="14.23" width="3.00" shape="2826.14,3386.57 2826.63,3390.18 2827.58,3393.53 2829.03,3396.70 2831.02,3399.73"/>
    </edge>
    <edge id=":1235932399_10" function="internal">
        <lane id=":1235932399_10_0" index="0" speed="13.89" length="15.94" width="3.00" shape="2826.14,3386.57 2826.24,3390.47 2826.01,3394.54 2825.46,3398.57 2824.61,3402.37"/>
    </edge>
    <edge id=":1235932399_11" function="internal">
        <lane id=":1235932399_11_0" index="0" speed="13.89" length="4.53" width="3.00" shape="2826.14,3386.57 2825.45,3387.79 2824.71,3388.23 2823.91,3387.90 2823.05,3386.79"/>
    </edge>
    <edge id=":1235932399_12" function="internal">
        <lane id=":1235932399_12_0" index="0" speed="13.89" length="14.89" width="3.00" shape="2821.62,3401.54 2822.46,3397.91 2822.97,3394.23 2823.17,3390.52 2823.05,3386.79"/>
    </edge>
    <edge id=":1235932399_13" function="internal">
        <lane id=":1235932399_13_0" index="0" allow="delivery bicycle" speed="13.85" length="16.00" width="3.00" shape="2821.62,3401.54 2822.96,3397.88 2824.88,3394.26 2827.24,3390.91 2829.87,3388.02"/>
    </edge>
    <edge id=":1235932399_14" function="internal">
        <lane id=":1235932399_14_0" index="0" speed="13.89" length="14.01" width="3.00" shape="2821.62,3401.54 2823.29,3397.55 2825.41,3395.92 2827.99,3396.64 2831.02,3399.73"/>
    </edge>
    <edge id=":1235932399_15" function="internal">
        <lane id=":1235932399_15_0" index="0" speed="13.89" length="4.53" width="3.00" shape="2821.62,3401.54 2822.68,3400.63 2823.53,3400.46 2824.17,3401.05 2824.61,3402.37"/>
    </edge>
    <edge id=":1235932407_0" function="internal">
        <lane id=":1235932407_0_0" index="0" speed="13.89" length="10.64" width="3.00" shape="3083.52,3405.99 3082.39,3408.85 3081.54,3410.93 3080.58,3412.96 3079.10,3415.65"/>
    </edge>
    <edge id=":1235932407_1" function="internal">
        <lane id=":1235932407_1_0" index="0" allow="delivery bicycle" speed="13.85" length="13.12" width="3.00" shape="3083.52,3405.99 3081.57,3409.44 3079.35,3410.80 3076.87,3410.05 3074.11,3407.20"/>
    </edge>
    <edge id=":1235932407_2" function="internal">
        <lane id=":1235932407_2_0" index="0" speed="13.89" length="4.53" width="3.00" shape="3083.52,3405.99 3082.37,3406.78 3081.51,3406.85 3080.93,3406.20 3080.65,3404.83"/>
    </edge>
    <edge id=":1235932407_3" function="internal">
        <lane id=":1235932407_3_0" index="0" speed="13.85" length="5.65" width="3.00" shape="3076.60,3405.36 3077.78,3406.58 3078.85,3406.90 3079.81,3406.32 3080.65,3404.83"/>
    </edge>
    <edge id=":1235932407_4" function="internal">
        <lane id=":1235932407_4_0" index="0" speed="13.85" length="11.18" width="3.00" shape="3076.60,3405.36 3078.53,3408.39 3079.59,3411.12 3079.78,3413.54 3079.10,3415.65"/>
    </edge>
    <edge id=":1235932407_5" function="internal">
        <lane id=":1235932407_5_0" index="0" allow="delivery bicycle" speed="13.80" length="4.53" width="3.00" shape="3076.60,3405.36 3076.67,3406.75 3076.28,3407.52 3075.42,3407.68 3074.11,3407.20"/>
    </edge>
    <edge id=":1235932407_6" function="internal">
        <lane id=":1235932407_6_0" index="0" allow="delivery bicycle" speed="13.85" length="7.61" width="3.00" shape="3076.41,3414.11 3076.73,3412.88 3076.45,3411.31 3075.58,3409.42 3074.11,3407.20"/>
    </edge>
    <edge id=":1235932407_7" function="internal">
        <lane id=":1235932407_7_0" index="0" speed="13.89" length="10.22" width="3.00" shape="3076.41,3414.11 3077.86,3411.49 3078.76,3409.59 3079.55,3407.63 3080.65,3404.83"/>
    </edge>
    <edge id=":1235932407_8" function="internal">
        <lane id=":1235932407_8_0" index="0" speed="13.89" length="4.53" width="3.00" shape="3076.41,3414.11 3077.66,3413.49 3078.53,3413.54 3079.01,3414.26 3079.10,3415.65"/>
    </edge>
    <edge id=":1235932516_0" function="internal">
        <lane id=":1235932516_0_0" index="0" allow="delivery bicycle" speed="13.80" length="6.90" width="3.00" shape="2872.96,3360.49 2870.93,3360.70 2869.55,3361.00 2868.27,3361.59 2866.55,3362.68"/>
    </edge>
    <edge id=":1235932516_1" function="internal">
        <lane id=":1235932516_1_0" index="0" allow="delivery bicycle" speed="13.80" length="9.04" width="3.00" shape="2872.96,3360.49 2870.54,3360.39 2868.61,3359.58 2867.16,3358.06 2866.20,3355.84"/>
    </edge>
    <edge id=":1235932516_2" function="internal">
        <lane id=":1235932516_2_0" index="0" allow="delivery bicycle" speed="13.80" length="4.53" width="3.00" shape="2872.96,3360.49 2871.73,3359.83 2871.27,3359.09 2871.58,3358.29 2872.67,3357.40"/>
    </edge>
    <edge id=":1235932516_3" function="internal">
        <lane id=":1235932516_3_0" index="0" allow="delivery bicycle" speed="13.80" length="4.65" width="3.00" shape="2869.19,3355.01 2869.68,3356.15 2870.43,3356.94 2871.42,3357.35 2872.67,3357.40"/>
    </edge>
    <edge id=":1235932516_4" function="internal">
        <lane id=":1235932516_4_0" index="0" allow="delivery bicycle" speed="13.80" length="8.73" width="3.00" shape="2869.19,3355.01 2869.54,3357.36 2869.22,3359.42 2868.22,3361.19 2866.55,3362.68"/>
    </edge>
    <edge id=":1235932516_5" function="internal">
        <lane id=":1235932516_5_0" index="0" allow="delivery bicycle" speed="13.80" length="4.53" width="3.00" shape="2869.19,3355.01 2868.75,3356.34 2868.11,3356.92 2867.26,3356.75 2866.20,3355.84"/>
    </edge>
    <edge id=":1235932516_6" function="internal">
        <lane id=":1235932516_6_0" index="0" allow="delivery bicycle" speed="13.80" length="4.81" width="3.00" shape="2864.83,3360.10 2865.73,3359.29 2866.25,3358.32 2866.41,3357.16 2866.20,3355.84"/>
    </edge>
    <edge id=":1235932516_7" function="internal">
        <lane id=":1235932516_7_0" index="0" allow="delivery bicycle" speed="13.80" length="8.44" width="3.00" shape="2864.83,3360.10 2866.93,3358.76 2868.50,3358.04 2870.19,3357.67 2872.67,3357.40"/>
    </edge>
    <edge id=":1235932516_8" function="internal">
        <lane id=":1235932516_8_0" index="0" allow="delivery bicycle" speed="13.80" length="4.53" width="3.00" shape="2864.83,3360.10 2866.23,3360.10 2866.98,3360.53 2867.09,3361.39 2866.55,3362.68"/>
    </edge>
    <edge id=":1433956536_0" function="internal">
        <lane id=":1433956536_0_0" index="0" speed="22.22" length="0.31" width="3.00" shape="1052.73,2726.32 1052.42,2726.36"/>
    </edge>
    <edge id=":1433956536_1" function="internal">
        <lane id=":1433956536_1_0" index="0" speed="22.22" length="4.53" width="3.00" shape="1052.73,2726.32 1051.46,2725.73 1050.96,2725.03 1051.22,2724.20 1052.25,2723.26"/>
    </edge>
    <edge id=":1433956536_2" function="internal">
        <lane id=":1433956536_2_0" index="0" speed="22.22" length="0.25" width="3.00" shape="1052.00,2723.29 1052.25,2723.26"/>
    </edge>
    <edge id=":1433956536_3" function="internal">
        <lane id=":1433956536_3_0" index="0" speed="22.22" length="4.53" width="3.00" shape="1052.00,2723.29 1053.26,2723.90 1053.75,2724.62 1053.47,2725.44 1052.42,2726.36"/>
    </edge>
    <edge id=":1716039277_0" function="internal">
        <lane id=":1716039277_0_0" index="0" speed="13.89" length="4.53" width="3.00" shape="1489.23,4307.28 1488.43,4308.43 1487.65,4308.80 1486.88,4308.40 1486.13,4307.22"/>
    </edge>
    <edge id=":1782962499_0" function="internal">
        <lane id=":1782962499_0_0" index="0" speed="13.89" length="4.53" width="3.00" shape="1626.60,4335.14 1625.99,4336.40 1625.27,4336.89 1624.45,4336.61 1623.52,4335.56"/>
    </edge>
    <edge id=":203629005_0" function="internal">
        <lane id=":203629005_0_0" index="0" speed="13.89" length="4.87" width="3.00" shape="2600.45,2909.03 2600.11,2907.73 2599.45,2906.87 2598.44,2906.43 2597.10,2906.43"/>
    </edge>
    <edge id=":203629005_1" function="internal">
        <lane id=":203629005_1_0" index="0" speed="13.89" length="9.15" width="3.00" shape="2600.45,2909.03 2599.29,2899.95"/>
    </edge>
    <edge id=":203629005_2" function="internal">
        <lane id=":203629005_2_0" index="0" speed="13.89" length="4.53" width="3.00" shape="2600.45,2909.03 2601.09,2907.79 2601.82,2907.32 2602.63,2907.62 2603.53,2908.69"/>
    </edge>
    <edge id=":203629005_3" function="internal">
        <lane id=":203629005_3_0" index="0" speed="13.89" length="9.26" width="3.00" shape="2602.35,2899.51 2603.53,2908.69"/>
    </edge>
    <edge id=":203629005_4" function="internal">
        <lane id=":203629005_4_0" index="0" speed="13.89" length="9.92" width="3.00" shape="2602.35,2899.51 2602.36,2902.21 2601.48,2904.27 2599.73,2905.67 2597.10,2906.43"/>
    </edge>
    <edge id=":203629005_5" function="internal">
        <lane id=":203629005_5_0" index="0" speed="13.89" length="4.53" width="3.00" shape="2602.35,2899.51 2601.75,2900.77 2601.04,2901.26 2600.22,2900.99 2599.29,2899.95"/>
    </edge>
    <edge id=":203629005_6" function="internal">
        <lane id=":203629005_6_0" index="0" speed="13.89" length="4.90" width="3.00" shape="2596.67,2903.36 2597.98,2902.99 2598.85,2902.29 2599.29,2901.28 2599.29,2899.95"/>
    </edge>
    <edge id=":203629005_7" function="internal">
        <lane id=":203629005_7_0" index="0" speed="13.89" length="9.97" width="3.00" shape="2596.67,2903.36 2599.41,2903.37 2601.47,2904.26 2602.85,2906.03 2603.53,2908.69"/>
    </edge>
    <edge id=":203629005_8" function="internal">
        <lane id=":203629005_8_0" index="0" speed="13.89" length="4.53" width="3.00" shape="2596.67,2903.36 2597.93,2903.96 2598.42,2904.68 2598.14,2905.50 2597.10,2906.43"/>
    </edge>
    <edge id=":203629006_0" function="internal">
        <lane id=":203629006_0_0" index="0" speed="13.89" length="9.20" width="3.00" shape="2564.23,2914.05 2563.07,2904.92"/>
    </edge>
    <edge id=":203629006_1" function="internal">
        <lane id=":203629006_1_0" index="0" speed="13.89" length="9.89" width="3.00" shape="2564.23,2914.05 2564.24,2911.36 2565.13,2909.31 2566.88,2907.92 2569.50,2907.16"/>
    </edge>
    <edge id=":203629006_2" function="internal">
        <lane id=":203629006_2_0" index="0" speed="13.89" length="4.53" width="3.00" shape="2564.23,2914.05 2564.83,2912.80 2565.55,2912.31 2566.37,2912.58 2567.30,2913.63"/>
    </edge>
    <edge id=":203629006_3" function="internal">
        <lane id=":203629006_3_0" index="0" speed="13.89" length="4.90" width="3.00" shape="2569.93,2910.23 2568.63,2910.61 2567.75,2911.30 2567.31,2912.30 2567.30,2913.63"/>
    </edge>
    <edge id=":203629006_4" function="internal">
        <lane id=":203629006_4_0" index="0" speed="13.89" length="9.95" width="3.00" shape="2569.93,2910.23 2567.20,2910.22 2565.14,2909.34 2563.77,2907.57 2563.07,2904.92"/>
    </edge>
    <edge id=":203629006_5" function="internal">
        <lane id=":203629006_5_0" index="0" speed="13.89" length="4.53" width="3.00" shape="2569.93,2910.23 2568.68,2909.63 2568.18,2908.91 2568.46,2908.09 2569.50,2907.16"/>
    </edge>
    <edge id=":203629006_6" function="internal">
        <lane id=":203629006_6_0" index="0" speed="13.89" length="4.86" width="3.00" shape="2566.15,2904.57 2566.49,2905.86 2567.16,2906.73 2568.17,2907.16 2569.50,2907.16"/>
    </edge>